Version 4
SHEET 1 1140 680
WIRE 976 -464 976 -496
WIRE 496 -368 496 -496
WIRE 688 -368 688 -496
WIRE 976 -368 976 -400
WIRE 80 -256 32 -256
WIRE 336 -256 304 -256
WIRE 976 -256 976 -288
WIRE 832 -208 832 -496
WIRE 80 -192 0 -192
WIRE 496 -192 496 -288
WIRE 496 -192 304 -192
WIRE 800 -192 608 -192
WIRE -96 -176 -96 -240
WIRE 928 -176 864 -176
WIRE 688 -160 688 -288
WIRE 800 -160 688 -160
WIRE 80 -128 48 -128
WIRE 400 -128 304 -128
WIRE 496 -128 496 -192
WIRE 688 -128 688 -160
WIRE 80 -64 48 -64
WIRE 336 -64 304 -64
WIRE -96 -32 -96 -96
WIRE 0 -16 0 -192
WIRE 400 -16 400 -128
WIRE 400 -16 0 -16
WIRE 496 -16 496 -48
WIRE 496 -16 400 -16
WIRE 608 -16 608 -192
WIRE 608 -16 496 -16
WIRE 336 16 336 -64
WIRE 496 16 496 -16
WIRE 336 128 336 80
WIRE 496 128 496 80
WIRE 688 128 688 -48
WIRE 832 128 832 -144
WIRE 976 128 976 -160
FLAG 496 128 0
FLAG 688 128 0
FLAG 32 -256 0
FLAG 336 128 0
FLAG -96 -32 0
FLAG 832 128 0
FLAG 976 128 0
FLAG -96 -240 vcc
FLAG 336 -256 vcc
FLAG 496 -496 vcc
FLAG 688 -496 vcc
FLAG 832 -496 vcc
FLAG 976 -496 vcc
FLAG 48 -64 vcc
FLAG 48 -128 out
SYMBOL Misc\\NE555 192 -160 R0
WINDOW 0 -4 -76 Center 2
SYMATTR InstName U1
SYMBOL res 480 -384 R0
SYMATTR InstName R1
SYMATTR Value 1.8k
SYMBOL res 480 -144 R0
SYMATTR InstName R2
SYMATTR Value 12.2k
SYMBOL cap 480 16 R0
SYMATTR InstName C1
SYMATTR Value 0.1µf
SYMBOL res 672 -384 R0
SYMATTR InstName R3
SYMATTR Value 6k
SYMBOL res 672 -144 R0
SYMATTR InstName R4
SYMATTR Value R=1000+500*time
SYMBOL cap 320 16 R0
SYMATTR InstName C2
SYMATTR Value 10nF
SYMBOL nmos 928 -256 R0
SYMATTR InstName M1
SYMATTR Value IRF510
SYMBOL bv -96 -192 R0
WINDOW 0 -57 16 Left 2
WINDOW 3 -68 104 Left 2
SYMATTR InstName V1
SYMATTR Value 12V
SYMATTR Prefix V
SYMBOL Opamps\\UniversalOpamp2 832 -176 R0
SYMATTR InstName U2
SYMBOL LED 960 -464 R0
SYMATTR InstName D1
SYMATTR Value LXHL-BW02
SYMATTR Description Diode
SYMATTR Type diode
SYMBOL res 960 -384 R0
SYMATTR InstName R5
SYMATTR Value 510
TEXT 0 24 Left 2 !.tran 10
